/*--------------------------------*- C++ -*----------------------------------*\
| =========                 |                                                 |
| \\      /  F ield         | OpenFOAM: The Open Source CFD Toolbox           |
|  \\    /   O peration     | Version:  1.7.0                                 |
|   \\  /    A nd           | Web:      www.OpenFOAM.com                      |
|    \\/     M anipulation  |                                                 |
\*---------------------------------------------------------------------------*/
FoamFile
{
    version     2.0;
    format      ascii;
    class       dictionary;
    location    "system";
    object      controlDict;
}
// * * * * * * * * * * * * * * * * * * * * * * * * * * * * * * * * * * * * * //

libs (
  "libfluidThermophysicalModels.so"
  "libmyFoam.so"
);

application     myLusgsFoam;

startFrom       startTime;

startTime       0;

stopAt          endTime;

endTime         50000;

deltaT          1;

writeControl    timeStep;

writeInterval   10000;

purgeWrite      10;

writeFormat     binary;

writePrecision  12;

writeCompression off;

timeFormat      general;

timePrecision   6;

runTimeModifiable yes;

functions
{
  #includeFunc "MachNo"
  #includeFunc "wallShearStress"
  #includeFunc "lower_wall"
}

maxCo 1e3;

rDeltaTSmoothingCoeff 0.1;

// ************************************************************************* //
