/*--------------------------------*- C++ -*----------------------------------*\
| =========                 |                                                 |
| \\      /  F ield         | OpenFOAM: The Open Source CFD Toolbox           |
|  \\    /   O peration     | Version:  2.1.0                                 |
|   \\  /    A nd           | Web:      www.OpenFOAM.org                      |
|    \\/     M anipulation  |                                                 |
\*---------------------------------------------------------------------------*/
FoamFile
{
    version     2.0;
    format      ascii;
    class       dictionary;
    location    "system";
    object      fvSolution;
}
// * * * * * * * * * * * * * * * * * * * * * * * * * * * * * * * * * * * * * //

solvers
{
  rho 
    {
      solver diag;
    }

  rhoU 
    {
      solver diag;
    }

  rhoE 
    {
      solver diag;
    }
  
    "(k|omega)"
    {
        solver          smoothSolver;
        smoother        symGaussSeidel;
        tolerance       1e-8;
        relTol          0;
        //solver          BiCCG;
	//preconditioner  DILU;
        //tolerance       1e-8;
        //relTol          0;
        minIter 1;
    }
}

LUSGS {
   internalIterations 1;
   localTimestepping true;
}

fieldBounds
{
    rho 0.01 10;
    p   100 1e6;
    T   10 2000;
}

relaxationFactors
{
  equations
    {
      "(k|epsilon|omega)"   0.7;
      yWall           0.7;
    }
}


// ************************************************************************* //
