/*--------------------------------*- C++ -*----------------------------------*\
| =========                 |                                                 |
| \\      /  F ield         | OpenFOAM: The Open Source CFD Toolbox           |
|  \\    /   O peration     | Version:  2206                                  |
|   \\  /    A nd           | Website:  www.openfoam.com                      |
|    \\/     M anipulation  |                                                 |
\*---------------------------------------------------------------------------*/
FoamFile
{
    version     2.0;
    format      binary;
    arch        "LSB;label=32;scalar=64";
    class       volScalarField;
    location    "0";
    object      k;
}
// * * * * * * * * * * * * * * * * * * * * * * * * * * * * * * * * * * * * * //

dimensions      [0 2 -2 0 0 0 0];

internalField   uniform 10;

boundaryField
{
    INLET
    {
        type            turbulentIntensityKineticEnergyInlet;
        intensity       8.9e-05;
        value           uniform 10;
    }
    WALL_LOWER
    {
        type            kLowReWallFunction;
        value           uniform 0;
    }
    PER_1
    {
        type            wedge;
    }
    PER_2
    {
        type            wedge;
    }
    OUTLET
    {
        type            inletOutlet;
        inletValue      uniform 1e-05;
        value           uniform 10;
    }
    WALL_UPPER
    {
        type            slip;
    }
}


// ************************************************************************* //
