/*--------------------------------*- C++ -*----------------------------------*\
| =========                 |                                                 |
| \\      /  F ield         | OpenFOAM: The Open Source CFD Toolbox           |
|  \\    /   O peration     | Version:  2206                                  |
|   \\  /    A nd           | Website:  www.openfoam.com                      |
|    \\/     M anipulation  |                                                 |
\*---------------------------------------------------------------------------*/
FoamFile
{
    version     2.0;
    format      binary;
    arch        "LSB;label=32;scalar=64";
    class       volVectorField;
    location    "0";
    object      U;
}
// * * * * * * * * * * * * * * * * * * * * * * * * * * * * * * * * * * * * * //

dimensions      [0 1 -1 0 0 0 0];

internalField   uniform (277.27 0 0);

boundaryField
{
    INLET
    {
        type            subsonicInletTotal;
        inletDirection  uniform ( 1 0 0 );
        value           uniform (277.27 0 0);
    }
    WALL_LOWER
    {
        type            noSlip;
    }
    PER_1
    {
        type            wedge;
    }
    PER_2
    {
        type            wedge;
    }
    OUTLET
    {
        type            inletOutlet;
        inletValue      uniform (0 0 0);
        value           uniform (277.27 0 0);
    }
    WALL_UPPER
    {
        type            slip;
    }
}


// ************************************************************************* //
