/*--------------------------------*- C++ -*----------------------------------*\
| =========                 |                                                 |
| \\      /  F ield         | OpenFOAM: The Open Source CFD Toolbox           |
|  \\    /   O peration     | Version:  2.1.0                                 |
|   \\  /    A nd           | Web:      www.OpenFOAM.org                      |
|    \\/     M anipulation  |                                                 |
\*---------------------------------------------------------------------------*/
FoamFile
{
    version     2.0;
    format      ascii;
    class       dictionary;
    location    "system";
    object      fvSolution;
}
// * * * * * * * * * * * * * * * * * * * * * * * * * * * * * * * * * * * * * //

solvers
{
  rho 
    {
      solver diag;
    }

  rhoU 
    {
      solver diag;
    }

  rhoE 
    {
      solver diag;
    }
  
}

LUSGS {
  internalIterations 1;
  localTimestepping true;
}

fieldBounds
{
    rho 0.01 1000;
    p   100 1e8;
    T   10 800;
}



// ************************************************************************* //
