/*--------------------------------*- C++ -*----------------------------------*\
| =========                 |                                                 |
| \\      /  F ield         | OpenFOAM: The Open Source CFD Toolbox           |
|  \\    /   O peration     | Version:  2.1.0                                 |
|   \\  /    A nd           | Web:      www.OpenFOAM.org                      |
|    \\/     M anipulation  |                                                 |
\*---------------------------------------------------------------------------*/
FoamFile
{
    version     2.0;
    format      ascii;
    class       dictionary;
    location    "system";
    object      controlDict;
}
// * * * * * * * * * * * * * * * * * * * * * * * * * * * * * * * * * * * * * //

application     myLusgsFoam;

startFrom       startTime;

startTime       0;

stopAt          endTime;

endTime         2000;

deltaT          1;

writeControl    adjustableRunTime;

writeInterval   100;

purgeWrite      2;

writeFormat     ascii;

writePrecision  16;

writeCompression compressed;

timeFormat      general;

timePrecision   6;

runTimeModifiable yes;

adjustTimeStep  no;

maxCo 			1e3;

rDeltaTSmoothingCoeff 0.1;

functions
{
    #includeFunc "MachNo"
}


// ************************************************************************* //
