/*--------------------------------*- C++ -*----------------------------------*\
| =========                 |                                                 |
| \\      /  F ield         | OpenFOAM: The Open Source CFD Toolbox           |
|  \\    /   O peration     | Version:  2.1.0                                 |
|   \\  /    A nd           | Web:      www.OpenFOAM.org                      |
|    \\/     M anipulation  |                                                 |
\*---------------------------------------------------------------------------*/
FoamFile
{
    version     2.0;
    format      ascii;
    class       dictionary;
    location    "system";
    object      fvSchemes;
}
// * * * * * * * * * * * * * * * * * * * * * * * * * * * * * * * * * * * * * //

// dbnsFlux hllcLMFlux;
// dbnsFlux roeFlux;
// dbnsFlux AUSMplusUpFlux;
// dbnsFlux rusanovFlux;

dbnsFlux rotatedFlux;

rotatedFluxCoeffs
{
  epsilon 1.e-2;
  diffusiveFlux rusanovFlux;
  lowDiffusionFlux roeFlux;
}


ddtSchemes
{
    default         Euler;
}

gradSchemes
{
    default         Gauss linear;
    grad(U)         Gauss linear;
    grad(h)         Gauss linear;
}

divSchemes
{
    default             none;
    div(devRhoReff)     Gauss linear;
    div((devRhoReff&U)) Gauss linear;

    div((muEff*dev2(grad(U).T()))) Gauss linear;
}

laplacianSchemes
{
    default         Gauss linear corrected;
}

interpolationSchemes
{
    default         linear;
    reconstruct(p)  Minmod 1;
    reconstruct(U)  Minmod 1;
    reconstruct(T)  Minmod 1;
}

snGradSchemes
{
    default         corrected;
}

fluxRequired
{
    default         no;
}

wallDist
{
    method meshWave;
}

relaxationFactors
{}

// ************************************************************************* //
